Circuit: * Y:\Github\Studies\Coss\CircuitAndScript\Cicuit2.asc

Direct Newton iteration for .op point succeeded.

Date: Mon Apr 20 01:39:14 2020
Total elapsed time: 17.340 seconds.

tnom = 27
temp = 27
method = modified trap
totiter = 2101706
traniter = 2101703
tranpoints = 1000287
accept = 1000224
rejected = 63
matrix size = 10
fillins = 2
solver = Normal
Matrix Compiler1: 702 bytes object code size  0.2/0.1/[0.1]
Matrix Compiler2: off  [0.1]/0.1/0.1

