Circuit: * Z:\Github\Studies\WPT\LTspice\Gerçekçi_Model\1P1S_sweep.asc

.step x=0.05
.step x=0.1
.step x=0.15
.step x=0.2
.step x=0.25
.step x=0.3
.step x=0.35
.step x=0.4
.step x=0.45
.step x=0.5

Date: Sun Mar 29 13:13:12 2020
Total elapsed time: 0.138 seconds.

tnom = 27
temp = 27
method = trap
totiter = 0
traniter = 0
tranpoints = 0
accept = 0
rejected = 0
matrix size = 7
fillins = 1
solver = Normal

