Circuit: * Z:\Github\Studies\WPT\LTspice\Gerçekçi_Model\2P4S_SineExcited_ZVS_Realistic_Rect11.asc

.OP point found by inspection.
Heightened Def Con from 0.00378852 to 0.00378852

Date: Mon Mar 30 20:05:52 2020
Total elapsed time: 1.042 seconds.

tnom = 27
temp = 27
method = modified trap
totiter = 226248
traniter = 226248
tranpoints = 56736
accept = 39451
rejected = 17286
matrix size = 10
fillins = 2
solver = Normal
Matrix Compiler1: 838 bytes object code size  0.3/0.2/[0.1]
Matrix Compiler2: 856 bytes object code size  0.1/0.1/[0.1]

