Circuit: * Y:\Github\Studies\WPT\LTspice\2p4s_makale modelleri\1p2S_sine _series.asc

WARNING: Node VOUT+ is floating.

.OP point found by inspection.

Date: Wed May  6 00:02:02 2020
Total elapsed time: 2.616 seconds.

tnom = 27
temp = 27
method = modified trap
totiter = 471719
traniter = 471719
tranpoints = 212904
accept = 208338
rejected = 4566
matrix size = 17
fillins = 27
solver = Normal
Matrix Compiler1: 3.18 KB object code size  0.5/0.3/[0.2]
Matrix Compiler2: 1.97 KB object code size  0.2/0.2/[0.1]

