Circuit: * E:\Github\Studies\WPT\LTspice\2p4s_makale modelleri\1p2S_sine.asc

WARNING: Node VOUT+ is floating.

.OP point found by inspection.

Date: Tue May 05 00:05:49 2020
Total elapsed time: 11.110 seconds.

tnom = 27
temp = 27
method = modified trap
totiter = 2069584
traniter = 2069584
tranpoints = 640782
accept = 489046
rejected = 151736
matrix size = 16
fillins = 27
solver = Normal
Matrix Compiler1: 3.10 KB object code size  0.6/0.4/[0.3]
Matrix Compiler2: 1.87 KB object code size  0.3/0.3/[0.2]

